J015-0271
  DSViewer          3D                             0

 43 46  0  0  0  0  0  0  0  0999 V2000
    8.0805    5.6468   -7.1443 Br  0  0
    9.5166    6.8688   -7.4434 C   0  0
   10.5118    6.5213   -8.3748 C   0  0
   11.5599    7.4221   -8.6347 C   0  0
   11.5829    8.6600   -7.9539 C   0  0
   10.6248    8.9910   -7.0595 N   0  0
    9.6175    8.1272   -6.7951 C   0  0
    8.6067    8.5966   -5.7872 C   0  0
    7.4040    8.4396   -5.9990 O   0  0
    9.1253    9.2611   -4.7376 N   0  0
    8.4557    9.9314   -3.6783 C   0  0
    7.1068    9.6897   -3.3211 C   0  0
    6.5217   10.3856   -2.2456 C   0  0
    7.2754   11.3220   -1.5092 C   0  0
    6.6423   12.0750   -0.3538 C   0  0
    5.5195   11.2901    0.2977 C   0  0
    4.4339   10.8178   -0.4672 C   0  0
    3.4135   10.0992    0.1857 C   0  0
    3.4229    9.8373    1.5096 N   0  0
    4.4647   10.2931    2.2365 C   0  0
    5.5349   11.0215    1.6815 C   0  0
    8.6222   11.5546   -1.8536 C   0  0
    9.2081   10.8596   -2.9287 C   0  0
   12.6240    9.5874   -8.2052 N   0  0
   13.8292    9.3373   -8.7331 C   0  0
   14.5832   10.4367   -8.8450 N   0  0
   13.7963   11.4777   -8.3530 N   0  0
   12.6417   10.9093   -7.9889 C   0  0
   10.4674    5.5747   -8.8930 H   0  0
   12.3157    7.1559   -9.3578 H   0  0
   10.1330    9.3024   -4.7078 H   0  0
    6.5014    8.9684   -3.8478 H   0  0
    5.4900   10.1956   -1.9877 H   0  0
    7.4009   12.3087    0.3944 H   0  0
    6.2621   13.0331   -0.7106 H   0  0
    4.3782   11.0045   -1.5296 H   0  0
    2.5670    9.7249   -0.3708 H   0  0
    4.4451   10.0709    3.2932 H   0  0
    6.3442   11.3667    2.3078 H   0  0
    9.2091   12.2693   -1.2952 H   0  0
   10.2418   11.0498   -3.1786 H   0  0
   14.1652    8.3561   -9.0362 H   0  0
   11.8196   11.4735   -7.5748 H   0  0
  1  2  1  0  0  0
  2  7  1  0  0  0
  2  3  2  0  0  0
  3  4  1  0  0  0
  3 29  1  0  0  0
  4  5  2  0  0  0
  4 30  1  0  0  0
  5  6  1  0  0  0
  5 24  1  0  0  0
  6  7  2  0  0  0
  7  8  1  0  0  0
  8  9  2  0  0  0
  8 10  1  0  0  0
 10 11  1  0  0  0
 10 31  1  0  0  0
 11 23  1  0  0  0
 11 12  2  0  0  0
 12 13  1  0  0  0
 12 32  1  0  0  0
 13 14  2  0  0  0
 13 33  1  0  0  0
 14 15  1  0  0  0
 14 22  1  0  0  0
 15 16  1  0  0  0
 15 34  1  0  0  0
 15 35  1  0  0  0
 16 21  1  0  0  0
 16 17  2  0  0  0
 17 18  1  0  0  0
 17 36  1  0  0  0
 18 19  2  0  0  0
 18 37  1  0  0  0
 19 20  1  0  0  0
 20 21  2  0  0  0
 20 38  1  0  0  0
 21 39  1  0  0  0
 22 23  2  0  0  0
 22 40  1  0  0  0
 23 41  1  0  0  0
 24 28  1  0  0  0
 24 25  1  0  0  0
 25 26  2  0  0  0
 25 42  1  0  0  0
 26 27  1  0  0  0
 27 28  2  0  0  0
 28 43  1  0  0  0
M  END
$$$$
