Y043-7267
  DSViewer          3D                             0

 48 51  0  0  0  0  0  0  0  0999 V2000
    9.9378   10.1158    5.3187 C   0  0
    8.7635   10.9120    5.1992 O   0  0
    7.8168   10.5856    4.2508 C   0  0
    6.6919   11.4001    4.1845 C   0  0
    5.7291   11.2147    3.2003 C   0  0
    5.9057   10.2099    2.2489 C   0  0
    7.0000    9.3595    2.3405 C   0  0
    7.9345    9.5184    3.3551 C   0  0
    4.9089   10.0130    1.1711 C   0  0
    3.6593    9.8099    1.5262 N   0  0
    2.9978    9.7012    0.3827 N   0  0
    3.8000    9.8209   -0.7130 C   0  0
    5.0728   10.0148   -0.2403 C   0  0
    6.2372   10.3084   -1.1241 C   0  0
    6.7241    9.3673   -2.0439 C   0  0
    7.7270    9.7042   -2.9661 C   0  0
    8.1012    8.7669   -3.9179 O   0  0
    8.8088    9.2436   -5.0723 C   0  0
    8.9907    8.1845   -6.1531 C   0  0
    8.4016    6.9236   -6.0570 C   0  0
    8.5976    5.9781   -7.0606 C   0  0
    9.3793    6.3006   -8.1669 C   0  0
    9.9647    7.5594   -8.2788 C   0  0
    9.7727    8.4982   -7.2686 C   0  0
    8.2859   10.9917   -2.9004 C   0  0
    7.8000   11.9330   -2.0000 C   0  0
    6.7578   11.6051   -1.1457 C   0  0
    6.2004   12.6007   -0.3998 O   0  0
   10.5634   10.5205    6.1126 H   0  0
    9.6979    9.0842    5.5797 H   0  0
   10.5274   10.1262    4.4004 H   0  0
    6.5847   12.1998    4.8917 H   0  0
    4.8712   11.8706    3.1558 H   0  0
    7.1416    8.5945    1.6000 H   0  0
    8.7806    8.8501    3.3749 H   0  0
    1.9915    9.5767    0.3483 H   0  0
    3.4001    9.8035   -1.7163 H   0  0
    6.2806    8.3842   -2.0764 H   0  0
    9.7999    9.6052   -4.7882 H   0  0
    8.2487   10.0687   -5.5162 H   0  0
    7.8003    6.6694   -5.2012 H   0  0
    8.1427    5.0017   -6.9822 H   0  0
    9.5283    5.5705   -8.9484 H   0  0
   10.5659    7.8049   -9.1402 H   0  0
   10.2308    9.4731   -7.3569 H   0  0
    9.0681   11.2987   -3.5742 H   0  0
    8.1979   12.9363   -1.9997 H   0  0
    6.6585   13.4395   -0.4938 H   0  0
  1  2  1  0  0  0
  1 29  1  0  0  0
  1 30  1  0  0  0
  1 31  1  0  0  0
  2  3  1  0  0  0
  3  8  1  0  0  0
  3  4  2  0  0  0
  4  5  1  0  0  0
  4 32  1  0  0  0
  5  6  2  0  0  0
  5 33  1  0  0  0
  6  7  1  0  0  0
  6  9  1  0  0  0
  7  8  2  0  0  0
  7 34  1  0  0  0
  8 35  1  0  0  0
  9 13  1  0  0  0
  9 10  2  0  0  0
 10 11  1  0  0  0
 11 12  1  0  0  0
 11 36  1  0  0  0
 12 13  2  0  0  0
 12 37  1  0  0  0
 13 14  1  0  0  0
 14 27  1  0  0  0
 14 15  2  0  0  0
 15 16  1  0  0  0
 15 38  1  0  0  0
 16 17  1  0  0  0
 16 25  2  0  0  0
 17 18  1  0  0  0
 18 19  1  0  0  0
 18 39  1  0  0  0
 18 40  1  0  0  0
 19 24  1  0  0  0
 19 20  2  0  0  0
 20 21  1  0  0  0
 20 41  1  0  0  0
 21 22  2  0  0  0
 21 42  1  0  0  0
 22 23  1  0  0  0
 22 43  1  0  0  0
 23 24  2  0  0  0
 23 44  1  0  0  0
 24 45  1  0  0  0
 25 26  1  0  0  0
 25 46  1  0  0  0
 26 27  2  0  0  0
 26 47  1  0  0  0
 27 28  1  0  0  0
 28 48  1  0  0  0
M  END
$$$$
