L534-0343
  DSViewer          3D                             0

 55 58  0  0  0  0  0  0  0  0999 V2000
   10.2942    7.6286    4.7328 C   0  0
    9.0858    7.7960    3.9968 O   0  0
    8.4358    9.0099    4.0453 C   0  0
    8.9691   10.1592    4.6505 C   0  0
    8.2170   11.3282    4.7240 C   0  0
    6.9225   11.3632    4.2085 C   0  0
    6.3802   10.2328    3.5993 C   0  0
    5.0961   10.2710    3.1029 O   0  0
    4.8900   10.3070    1.7373 C   0  0
    5.9231   10.4599    0.8081 C   0  0
    5.6012   10.4800   -0.5525 C   0  0
    4.3164   10.3172   -0.9728 N   0  0
    3.3744   10.1961    0.0001 C   0  0
    3.5939   10.1983    1.3425 N   0  0
    6.6849   10.6330   -1.5644 C   0  0
    7.8027   11.3986   -1.2270 C   0  0
    8.9459   11.3999   -2.0140 C   0  0
    8.9582   10.6935   -3.2104 C   0  0
    7.8164   10.0022   -3.6380 C   0  0
    6.6815    9.9786   -2.8064 C   0  0
    7.7983    9.3025   -4.9709 C   0  0
    6.7498    9.1815   -5.5996 O   0  0
    8.9648    8.7872   -5.3962 N   0  0
    9.1236    8.0355   -6.6399 C   0  0
    8.4944    6.6234   -6.6093 C   0  0
    9.1069    5.5540   -7.5097 C   0  0
   10.1157    5.8339   -8.4409 C   0  0
   10.6820    4.8021   -9.1843 C   0  0
   10.2339    3.4945   -9.0131 C   0  0
    9.2176    3.2113   -8.1045 C   0  0
    8.6555    4.2391   -7.3545 C   0  0
    7.1502    9.0708    3.5049 C   0  0
   10.6321    6.6002    4.6481 H   0  0
   11.0907    8.2669    4.3492 H   0  0
   10.1474    7.8334    5.7949 H   0  0
    9.9577   10.1583    5.0832 H   0  0
    8.6421   12.1900    5.2114 H   0  0
    6.3254   12.2575    4.2791 H   0  0
    6.9500   10.5401    1.1301 H   0  0
    2.3491   10.0851   -0.3204 H   0  0
    7.8002   11.9671   -0.3137 H   0  0
    9.8146   11.9592   -1.6996 H   0  0
    9.8524   10.7192   -3.8161 H   0  0
    5.8009    9.4240   -3.1061 H   0  0
    9.8061    8.9984   -4.8772 H   0  0
   10.2002    7.9252   -6.7129 H   0  0
    8.8571    8.5908   -7.5406 H   0  0
    7.4215    6.6956   -6.7981 H   0  0
    8.5824    6.2362   -5.5998 H   0  0
   10.4778    6.8392   -8.5925 H   0  0
   11.4808    5.0166   -9.8764 H   0  0
   10.6807    2.6947   -9.5837 H   0  0
    8.8699    2.2006   -7.9772 H   0  0
    7.8779    4.0102   -6.6387 H   0  0
    6.7273    8.2000    3.0323 H   0  0
  1  2  1  0  0  0
  1 33  1  0  0  0
  1 34  1  0  0  0
  1 35  1  0  0  0
  2  3  1  0  0  0
  3 32  1  0  0  0
  3  4  2  0  0  0
  4  5  1  0  0  0
  4 36  1  0  0  0
  5  6  2  0  0  0
  5 37  1  0  0  0
  6  7  1  0  0  0
  6 38  1  0  0  0
  7  8  1  0  0  0
  7 32  2  0  0  0
  8  9  1  0  0  0
  9 14  1  0  0  0
  9 10  2  0  0  0
 10 11  1  0  0  0
 10 39  1  0  0  0
 11 12  2  0  0  0
 11 15  1  0  0  0
 12 13  1  0  0  0
 13 14  2  0  0  0
 13 40  1  0  0  0
 15 20  1  0  0  0
 15 16  2  0  0  0
 16 17  1  0  0  0
 16 41  1  0  0  0
 17 18  2  0  0  0
 17 42  1  0  0  0
 18 19  1  0  0  0
 18 43  1  0  0  0
 19 20  2  0  0  0
 19 21  1  0  0  0
 20 44  1  0  0  0
 21 22  2  0  0  0
 21 23  1  0  0  0
 23 24  1  0  0  0
 23 45  1  0  0  0
 24 25  1  0  0  0
 24 46  1  0  0  0
 24 47  1  0  0  0
 25 26  1  0  0  0
 25 48  1  0  0  0
 25 49  1  0  0  0
 26 31  1  0  0  0
 26 27  2  0  0  0
 27 28  1  0  0  0
 27 50  1  0  0  0
 28 29  2  0  0  0
 28 51  1  0  0  0
 29 30  1  0  0  0
 29 52  1  0  0  0
 30 31  2  0  0  0
 30 53  1  0  0  0
 31 54  1  0  0  0
 32 55  1  0  0  0
M  END
$$$$
