P496-2670
  DSViewer          3D                             0

 42 44  0  0  0  0  0  0  0  0999 V2000
   12.3987    6.1997    7.1189 C   0  0
   12.5950    7.4684    6.4991 O   0  0
   11.5157    8.0506    5.8640 C   0  0
   10.4934    7.3027    5.2628 C   0  0
    9.3715    7.9317    4.7302 C   0  0
    9.2476    9.3192    4.7857 C   0  0
    8.0132    9.8645    4.3927 N   0  0
    7.7440   11.1281    4.0116 C   0  0
    8.6004   11.9689    3.7457 O   0  0
    6.2582   11.5190    3.9640 C   0  0
    5.4596   10.8770    2.8447 C   0  0
    5.7478   10.9334    1.5716 N   0  0
    4.7333   10.2977    0.9969 C   0  0
    4.5945   10.1717   -0.5163 C   0  0
    5.8704   10.4913   -1.2965 C   0  0
    6.3398   11.8081   -1.3466 C   0  0
    7.5336   12.1035   -1.9990 C   0  0
    8.2569   11.0932   -2.6312 C   0  0
    7.7908    9.7828   -2.5994 C   0  0
    6.6092    9.4809   -1.9235 C   0  0
    6.2000    8.2001   -1.8620 F   0  0
    3.8110    9.8255    1.8107 N   0  0
    4.2833   10.1996    3.0006 N   0  0
   10.2922   10.0800    5.3319 C   0  0
   11.4184    9.4489    5.8624 C   0  0
   12.6559   10.4204    6.5786 Cl  0  0
   13.3002    5.9265    7.6656 H   0  0
   12.1999    5.4012    6.4022 H   0  0
   11.5760    6.2301    7.8349 H   0  0
   10.5392    6.2248    5.2241 H   0  0
    8.5897    7.3217    4.3011 H   0  0
    7.2382    9.2203    4.3985 H   0  0
    5.8184   11.3274    4.9391 H   0  0
    6.2008   12.6015    3.8674 H   0  0
    4.2364    9.1753   -0.7805 H   0  0
    3.8101   10.8463   -0.8686 H   0  0
    5.7897   12.5992   -0.8579 H   0  0
    7.9061   13.1150   -2.0002 H   0  0
    9.1839   11.3193   -3.1391 H   0  0
    8.3558    8.9980   -3.0791 H   0  0
    3.8104    9.9983    3.8719 H   0  0
   10.2204   11.1559    5.4095 H   0  0
  1  2  1  0  0  0
  1 27  1  0  0  0
  1 28  1  0  0  0
  1 29  1  0  0  0
  2  3  1  0  0  0
  3 25  1  0  0  0
  3  4  2  0  0  0
  4  5  1  0  0  0
  4 30  1  0  0  0
  5  6  2  0  0  0
  5 31  1  0  0  0
  6  7  1  0  0  0
  6 24  1  0  0  0
  7  8  1  0  0  0
  7 32  1  0  0  0
  8  9  2  0  0  0
  8 10  1  0  0  0
 10 11  1  0  0  0
 10 33  1  0  0  0
 10 34  1  0  0  0
 11 23  1  0  0  0
 11 12  2  0  0  0
 12 13  1  0  0  0
 13 14  1  0  0  0
 13 22  2  0  0  0
 14 15  1  0  0  0
 14 35  1  0  0  0
 14 36  1  0  0  0
 15 20  1  0  0  0
 15 16  2  0  0  0
 16 17  1  0  0  0
 16 37  1  0  0  0
 17 18  2  0  0  0
 17 38  1  0  0  0
 18 19  1  0  0  0
 18 39  1  0  0  0
 19 20  2  0  0  0
 19 40  1  0  0  0
 20 21  1  0  0  0
 22 23  1  0  0  0
 23 41  1  0  0  0
 24 25  2  0  0  0
 24 42  1  0  0  0
 25 26  1  0  0  0
M  END
$$$$
