Y041-6779
  DSViewer          3D                             0

 38 40  0  0  0  0  0  0  0  0999 V2000
    9.4715    9.6636   -5.0698 C   0  0
    9.5209   10.5999   -3.9950 O   0  0
    8.4625   10.6454   -3.1108 C   0  0
    7.3244    9.8331   -3.2086 C   0  0
    6.2767   10.0050   -2.3150 C   0  0
    6.3384   10.9860   -1.3336 C   0  0
    5.1690   11.1920   -0.3887 C   0  0
    5.3530   10.5916    1.0096 C   0  0
    6.5329   10.5936    1.7002 C   0  0
    6.6734    9.9732    3.0055 C   0  0
    5.6342    9.3989    3.4948 N   0  0
    4.4396    9.4036    2.8000 N   0  0
    4.1648    9.9626    1.5925 C   0  0
    3.0327    9.9164    1.1134 O   0  0
    7.9482   10.0130    3.7232 C   0  0
    8.5006   11.2397    4.1055 C   0  0
    9.6866   11.2632    4.8348 C   0  0
   10.3163   10.0696    5.1833 C   0  0
    9.7795    8.8465    4.7966 C   0  0
    8.5956    8.8166    4.0635 C   0  0
    7.4577   11.8001   -1.2388 C   0  0
    8.5373   11.5941   -2.0905 C   0  0
   10.3529    9.7852   -5.6995 H   0  0
    8.5912    9.7998   -5.6969 H   0  0
    9.4652    8.6367   -4.7008 H   0  0
    7.2225    9.0865   -3.9795 H   0  0
    5.4000    9.4000   -2.3958 H   0  0
    5.0002   12.2591   -0.3000 H   0  0
    4.2747   10.8029   -0.8822 H   0  0
    7.3978   11.0598    1.2601 H   0  0
    3.6847    8.9439    3.2871 H   0  0
    8.0114   12.1722    3.8573 H   0  0
   10.1135   12.2005    5.1526 H   0  0
   11.2319   10.0956    5.7549 H   0  0
   10.2719    7.9226    5.0638 H   0  0
    8.1820    7.8610    3.7756 H   0  0
    7.4744   12.5852   -0.4999 H   0  0
    9.4160   12.2138   -2.0000 H   0  0
  1  2  1  0  0  0
  1 23  1  0  0  0
  1 24  1  0  0  0
  1 25  1  0  0  0
  2  3  1  0  0  0
  3 22  1  0  0  0
  3  4  2  0  0  0
  4  5  1  0  0  0
  4 26  1  0  0  0
  5  6  2  0  0  0
  5 27  1  0  0  0
  6  7  1  0  0  0
  6 21  1  0  0  0
  7  8  1  0  0  0
  7 28  1  0  0  0
  7 29  1  0  0  0
  8 13  1  0  0  0
  8  9  2  0  0  0
  9 10  1  0  0  0
  9 30  1  0  0  0
 10 11  2  0  0  0
 10 15  1  0  0  0
 11 12  1  0  0  0
 12 13  1  0  0  0
 12 31  1  0  0  0
 13 14  2  0  0  0
 15 20  1  0  0  0
 15 16  2  0  0  0
 16 17  1  0  0  0
 16 32  1  0  0  0
 17 18  2  0  0  0
 17 33  1  0  0  0
 18 19  1  0  0  0
 18 34  1  0  0  0
 19 20  2  0  0  0
 19 35  1  0  0  0
 20 36  1  0  0  0
 21 22  2  0  0  0
 21 37  1  0  0  0
 22 38  1  0  0  0
M  END
$$$$
