0SR
  DSViewer          3D                             0

 63 65  0  0  0  0  0  0  0  0999 V2000
    8.3676    7.9027   -4.3472 O   0  0
    8.4633    8.8503   -5.1178 C   0  0
    8.7901    8.7448   -6.4108 N   0  0
    9.1698    7.6291   -7.0748 C   0  0
    8.5278    6.4267   -7.0588 C   0  0
    9.2688    5.6603   -8.0069 C   0  0
    9.0318    4.2318   -8.4587 C   0  0
    7.7732    3.6654   -7.7726 C   0  0
   10.2384    3.3537   -8.0750 C   0  0
    8.8057    4.1949   -9.9834 C   0  0
   10.2796    6.3550   -8.5272 N   0  0
   10.2401    7.5775   -7.9474 N   0  0
   11.2289    8.5491   -8.2526 C   0  0
   11.7449    8.6484   -9.5632 C   0  0
   11.7478    9.3952   -7.2441 C   0  0
   12.7687   10.3165   -7.5412 C   0  0
   13.2816   10.4080   -8.8501 C   0  0
   14.3643   11.4175   -9.1647 C   0  0
   12.7671    9.5711   -9.8612 C   0  0
    8.2802   10.1244   -4.7469 N   0  0
    8.1758   10.6125   -3.3762 C   0  0
    6.9082   10.1554   -2.6336 C   0  0
    6.7826   10.8673   -1.2728 C   0  0
    5.7571   10.2719   -0.3801 N   0  3
    4.3701   10.3821   -0.8939 C   0  0
    3.3844    9.7190    0.0817 C   0  0
    3.4998   10.3018    1.3736 O   0  0
    4.8045   10.1519    1.9184 C   0  0
    5.8361   10.8233    0.9955 C   0  0
    8.9326    9.6264   -6.8923 H   0  0
    7.6562    6.1505   -6.4838 H   0  0
    6.8915    4.2683   -8.0001 H   0  0
    7.5714    2.6485   -8.1055 H   0  0
    7.8834    3.6361   -6.6881 H   0  0
   11.1553    3.7013   -8.5507 H   0  0
   10.4086    3.3716   -6.9990 H   0  0
   10.0901    2.3152   -8.3714 H   0  0
    9.6842    4.5442  -10.5268 H   0  0
    8.5913    3.1853  -10.3335 H   0  0
    7.9670    4.8298  -10.2730 H   0  0
   11.3555    8.0133  -10.3462 H   0  0
   11.3938    9.3203   -6.2269 H   0  0
   13.1694   10.9420   -6.7586 H   0  0
   14.8305   11.2156  -10.1291 H   0  0
   15.1383   11.3952   -8.3978 H   0  0
   13.9370   12.4190   -9.1936 H   0  0
   13.1412    9.6528  -10.8694 H   0  0
    8.3696   10.8321   -5.4746 H   0  0
    9.0685   10.3127   -2.8235 H   0  0
    8.1873   11.6986   -3.4243 H   0  0
    6.0330   10.3607   -3.2491 H   0  0
    6.9398    9.0767   -2.4809 H   0  0
    7.7460   10.8077   -0.7645 H   0  0
    6.5752   11.9285   -1.4211 H   0  0
    4.1113   11.4331   -1.0314 H   0  0
    4.2783    9.9034   -1.8679 H   0  0
    3.5586    8.6435    0.1411 H   0  0
    2.3691    9.8642   -0.2775 H   0  0
    5.0376    9.0965    2.0578 H   0  0
    4.8259   10.6139    2.9060 H   0  0
    6.8376   10.6787    1.4036 H   0  0
    5.6574   11.9002    0.9663 H   0  0
    5.9763    9.2866   -0.3150 H   0  0
  1  2  2  0  0  0
  2 20  1  0  0  0
  2  3  1  0  0  0
  3  4  1  0  0  0
  3 30  1  0  0  0
  4  5  2  0  0  0
  4 12  1  0  0  0
  5  6  1  0  0  0
  5 31  1  0  0  0
  6 11  2  0  0  0
  6  7  1  0  0  0
  7  8  1  0  0  0
  7  9  1  0  0  0
  7 10  1  0  0  0
  8 32  1  0  0  0
  8 33  1  0  0  0
  8 34  1  0  0  0
  9 35  1  0  0  0
  9 36  1  0  0  0
  9 37  1  0  0  0
 10 38  1  0  0  0
 10 39  1  0  0  0
 10 40  1  0  0  0
 11 12  1  0  0  0
 12 13  1  0  0  0
 13 15  1  0  0  0
 13 14  2  0  0  0
 14 19  1  0  0  0
 14 41  1  0  0  0
 15 16  2  0  0  0
 15 42  1  0  0  0
 16 17  1  0  0  0
 16 43  1  0  0  0
 17 18  1  0  0  0
 17 19  2  0  0  0
 18 44  1  0  0  0
 18 45  1  0  0  0
 18 46  1  0  0  0
 19 47  1  0  0  0
 20 21  1  0  0  0
 20 48  1  0  0  0
 21 22  1  0  0  0
 21 49  1  0  0  0
 21 50  1  0  0  0
 22 23  1  0  0  0
 22 51  1  0  0  0
 22 52  1  0  0  0
 23 24  1  0  0  0
 23 53  1  0  0  0
 23 54  1  0  0  0
 24 29  1  0  0  0
 24 25  1  0  0  0
 24 63  1  0  0  0
 25 26  1  0  0  0
 25 55  1  0  0  0
 25 56  1  0  0  0
 26 27  1  0  0  0
 26 57  1  0  0  0
 26 58  1  0  0  0
 27 28  1  0  0  0
 28 29  1  0  0  0
 28 59  1  0  0  0
 28 60  1  0  0  0
 29 61  1  0  0  0
 29 62  1  0  0  0
M  CHG  1  24   1
M  END
$$$$
