P162-0948
  DSViewer          3D                             0

 42 45  0  0  0  0  0  0  0  0999 V2000
    9.0000    2.2000   -7.2000 F   0  0
    9.2110    3.5027   -7.4224 C   0  0
    8.1664    4.3880   -7.2135 C   0  0
    8.3824    5.7416   -7.4043 C   0  0
    9.6457    6.2132   -7.7917 C   0  0
    9.9479    7.7104   -7.9044 C   0  0
    9.0000    8.6216   -7.2625 N   0  0
    8.5690    8.5847   -5.9914 C   0  0
    9.0000    7.8000   -5.1699 O   0  0
    7.4000    9.4749   -5.6000 C   0  0
    7.5048   10.0759   -4.2412 C   0  0
    6.4598    9.8778   -3.4135 O   0  0
    6.8390   10.5748   -2.3266 C   0  0
    8.0103   11.1544   -2.4631 N   0  0
    8.4494   10.8289   -3.7367 N   0  0
    5.9894   10.4959   -1.1286 C   0  0
    4.6117   10.2817   -1.1770 C   0  0
    3.8722   10.1792    0.0001 C   0  0
    4.5281   10.2876    1.2504 C   0  0
    3.8000   10.2001    2.3913 N   0  0
    4.4545   10.3415    3.5668 C   0  0
    5.8251   10.5425    3.6850 C   0  0
    6.5895   10.6000    2.5335 C   0  0
    5.9393   10.4971    1.2863 C   0  0
    6.6422   10.6001    0.0864 C   0  0
   10.6818    5.3035   -8.0176 C   0  0
   10.4644    3.9422   -7.8354 C   0  0
    7.2032    4.0286   -6.8828 H   0  0
    7.5634    6.4126   -7.2000 H   0  0
   10.9483    7.9253   -7.5256 H   0  0
    9.9783    7.9620   -8.9652 H   0  0
    8.7448    9.4492   -7.7855 H   0  0
    7.3111   10.2768   -6.3237 H   0  0
    6.4886    8.8901   -5.7026 H   0  0
    4.1138   10.2000   -2.1325 H   0  0
    2.8029   10.0201   -0.0333 H   0  0
    3.8263   10.2902    4.4394 H   0  0
    6.2908   10.6448    4.6539 H   0  0
    7.6586   10.7491    2.5819 H   0  0
    7.7112   10.7342    0.1091 H   0  0
   11.6672    5.6504   -8.2941 H   0  0
   11.2675    3.2351   -7.9815 H   0  0
  1  2  1  0  0  0
  2 27  1  0  0  0
  2  3  2  0  0  0
  3  4  1  0  0  0
  3 28  1  0  0  0
  4  5  2  0  0  0
  4 29  1  0  0  0
  5  6  1  0  0  0
  5 26  1  0  0  0
  6  7  1  0  0  0
  6 30  1  0  0  0
  6 31  1  0  0  0
  7  8  1  0  0  0
  7 32  1  0  0  0
  8  9  2  0  0  0
  8 10  1  0  0  0
 10 11  1  0  0  0
 10 33  1  0  0  0
 10 34  1  0  0  0
 11 15  2  0  0  0
 11 12  1  0  0  0
 12 13  1  0  0  0
 13 14  2  0  0  0
 13 16  1  0  0  0
 14 15  1  0  0  0
 16 25  1  0  0  0
 16 17  2  0  0  0
 17 18  1  0  0  0
 17 35  1  0  0  0
 18 19  2  0  0  0
 18 36  1  0  0  0
 19 24  1  0  0  0
 19 20  1  0  0  0
 20 21  2  0  0  0
 21 22  1  0  0  0
 21 37  1  0  0  0
 22 23  2  0  0  0
 22 38  1  0  0  0
 23 24  1  0  0  0
 23 39  1  0  0  0
 24 25  2  0  0  0
 25 40  1  0  0  0
 26 27  2  0  0  0
 26 41  1  0  0  0
 27 42  1  0  0  0
M  END
$$$$
